LAMMPS (28 Mar 2023 - Development)
KOKKOS mode is enabled (src/KOKKOS/kokkos.cpp:107)
  will use up to 1 GPU(s) per node
package kokkos
# LAMMPS input script

# == SETUP ==
units metal #ps A K  pressure in bars
atom_style atomic

atom_modify map yes
newton on

timer timeout 23:55:00
New timer settings: style=normal  mode=nosync  timeout=23:55:00

# == VARIABLES ==
variable    temp_water equal 330  # Temperature of water system
variable    temp_Cu_mobile equal 310 # Temperatureof the Cu atom (not fixed). 310 K ensures a temperature of 330 K in the outermost Cu atoms.
variable    seed1 equal 256982574
variable    seed2 equal 1008705
variable    stride equal 200
variable    nsteps equal 1000000 # 500 ps
variable    tstep equal 0.0005 # 0.5fs

# == DATA ==
boundary p p p #full
read_data Cu_H2O.data
Reading data file ...
  orthogonal box = (0 0 0) to (10.140377 8.7818242 30.131127)
  reading atoms ...
  246 atoms
  reading velocities ...
  246 velocities
mass		1 63.55   # Cu
mass		2 2.0016  # H
mass 		3 15.9994 # O

# == Define GROUPS ==
group H2O type 2 3
150 atoms in group H2O

# == DEFINE FIX Cu layers ==
variable z_fix_bottom equal 13.5 # A
variable z_fix_up equal 16.5# # A
region fixedlayer block  INF INF INF INF 13.5 16.5

group Cuall type 1
96 atoms in group Cuall
group fixedCu region fixedlayer
32 atoms in group fixedCu
group mobileCu subtract Cuall fixedCu
64 atoms in group mobileCu

# == Fix layers in the middle of the slab ==
fix fissoCubott fixedCu setforce 0 0 0
velocity fixedCu set 0 0 0

# == Define surface layers ==

variable z_surface_inf_low equal 9.0 # A
variable z_surface_inf_high equal 10.6 # A
region surface_inf block  INF INF INF INF 9 10.6
group surf_inf_Cu region surface_inf
16 atoms in group surf_inf_Cu

variable z_surface_sup_low equal 19.8 # A
variable z_surface_sup_high equal 21.0 # A
region surface_sup block  INF INF INF INF 19.8 21
group surf_sup_Cu region surface_sup
16 atoms in group surf_sup_Cu

# == Define Pair Style ==

pair_style mace no_domain_decomposition
pair_coeff * * MACE_Cu_H2O_PZC_1_stagetwo_compiled.model-lammps.pt Cu H O

# == Define NVT thermostat ==

velocity mobileCu create 310 256982574 mom yes rot yes
fix NVT_Cu mobileCu nvt temp 310 310 $(100.0*dt)
fix NVT_Cu mobileCu nvt temp 310 310 0.10000000000000000555

velocity  H2O  create 330 1008705
fix NVT_H2O H2O nvt temp 330 330 $(100.0*dt)
fix NVT_H2O H2O nvt temp 330 330 0.10000000000000000555

# == Compute and Visualization ==

thermo          200
thermo_style    custom step pe ke etotal temp press vol
thermo_modify	flush yes
fix 		thermo_print all print 200 "$(step) $(pe) $(ke) $(etotal) $(temp) $(press) $(vol)" append thermo.out screen no title "#step pe ke etotal temp press vol"

compute Tmobile mobileCu temp
compute Tsurface_inf surf_inf_Cu temp
compute Tsurface_sup surf_sup_Cu temp
compute Twater H2O temp
compute Tall all temp
compute Press all pressure Tall

fix myat1 mobileCu ave/time 1 1 100 c_Tmobile file temperature_mobile.dat
fix myat2 surf_inf_Cu ave/time 1 1 100 c_Tsurface_inf file temperature_surf_inf.dat
fix myat3 surf_sup_Cu ave/time 1 1 100 c_Tsurface_sup file temperature_surf_sup.dat
fix myat4 H2O ave/time 1 1 100 c_Twater file temperature_water.dat
fix myat5 all ave/time 1 1 100 c_Press[3]  file pressure_all.dat

dump		viewNVT all custom 200 Cu_H2O_NVT.dump id type element x y z
dump_modify	viewNVT sort id append yes element Cu H O

# == RUN  NVT ==

timestep 0.0005
run		1000000
Generated 0 of 3 mixed pair_coeff terms from geometric mixing rule
Step         PotEng         KinEng         TotEng          Temp          Press          Volume
0  -1816.2265      8.880172      -1807.3464      280.40816     -8210.2964      2683.2073
Averages over the last 2501 of 5001 rows, steps 500000 to 1000000:
PotEng KinEng TotEng Temp Press Volume
-1815.85 8.87316 -1806.98 280.187 -4187.1 2683.21
Loop time of 34937.2 on 1 procs for 1000000 steps with 246 atoms

write_restart	Cu_H2O_restart_1.restart
System init for write_restart ...
Generated 0 of 3 mixed pair_coeff terms from geometric mixing rule
write_data Cu_H2O_restart_1.data
System init for write_data ...
Generated 0 of 3 mixed pair_coeff terms from geometric mixing rule
undump viewNVT
